Spectre (R) Circuit Simulator
Version 18.1.0.421.isr9 64bit -- 17 Jul 2019
Simulating `input.scs' on zach-127-12.engr.tamu.edu at 6:30:30 PM, Wed Apr 12, 2023 (process id: 11478).
H = mpsImport( "spectre" "ipi" "v0.0" ?session "spectre1_15077_6" )
H->sclSetResultDir( "../psf" )
H->sclRun( "all" )
sclCkt0x9ae7c10 = H->sclGetCircuit(  "" )
H->sclQuit(  )
