
Spectre (R) Circuit Simulator
Version 18.1.0.421.isr9 32bit -- 17 Jul 2019
Copyright (C) 1989-2019 Cadence Design Systems, Inc. All rights reserved worldwide. Cadence and Spectre are registered trademarks of Cadence Design Systems, Inc. All others are the property of their respective holders.

Includes RSA BSAFE(R) Cryptographic or Security Protocol Software from RSA Security, Inc.

User: hbritton   Host: n01-zeus.olympus.ece.tamu.edu   HostID: A8C00A02   PID: 30176
Memory  available: 312.0146 GB  physical: 540.7710 GB
Linux   : CentOS Linux release 7.9.2009 (Core)
CPU Type: Intel(R) Xeon(R) CPU E5-2650 v3 @ 2.30GHz
        Socket: Processors [Frequency] (Hyperthreaded Processor)
        0:       0 [1350.5] ( 20 ),  2 [2600.0] ( 22 ),  4 [2600.0] ( 24 )
                 6 [2600.0] ( 26 ),  8 [2600.0] ( 28 ), 10 [2600.0] ( 30 )
                12 [2600.0] ( 32 ), 14 [2600.1] ( 34 ), 16 [2600.0] ( 36 )
                18 [2600.0] ( 38 )
        1:       1 [2603.5] ( 21 ),  3 [1200.0] ( 23 ),  5 [2601.4] ( 25 )
                 7 [1268.8] ( 27 ),  9 [2600.1] ( 29 ), 11 [1200.0] ( 31 )
                13 [1361.1] ( 33 ), 15 [1699.9] ( 35 ), 17 [2602.2] ( 37 )
                19 [1381.8] ( 39 )
        
System load averages (1min, 5min, 15min) : 35.1 %, 37.0 %, 35.4 %
Hyperthreading is enabled
Affinity is set by user to processors: 17 37 

Simulating `inverter.spi' on n01-zeus.olympus.ece.tamu.edu at 11:55:38 AM, Tue Feb 21, 2023 (process id: 30176).
Current working directory: /home/ugrads/h/hbritton/ecen454_714
Command line:
    /opt/coe/cadence/SPECTRE181/tools.lnx86/bin/spectre inverter.spi

Loading /opt/coe/cadence/SPECTRE181/tools.lnx86/cmi/lib/5.0/libinfineon_sh.so ...
Loading /opt/coe/cadence/SPECTRE181/tools.lnx86/cmi/lib/5.0/libphilips_o_sh.so ...
Loading /opt/coe/cadence/SPECTRE181/tools.lnx86/cmi/lib/5.0/libphilips_sh.so ...
Loading /opt/coe/cadence/SPECTRE181/tools.lnx86/cmi/lib/5.0/libsparam_sh.so ...
Loading /opt/coe/cadence/SPECTRE181/tools.lnx86/cmi/lib/5.0/libstmodels_sh.so ...
Reading file:  /home/ugrads/h/hbritton/ecen454_714/inverter.spi
Reading file:  /opt/coe/cadence/SPECTRE181/tools.lnx86/spectre/etc/configs/mapsubckt.cfg
Reading file:  /opt/coe/cadence/SPECTRE181/tools.lnx86/spectre/etc/configs/spectre.cfg
Reading file:  /home/ugrads/h/hbritton/cadence/cellcharacs/model18.spi
Reading file:  /home/ugrads/h/hbritton/cadence/cellcharacs/cell18.spi
Time for NDB Parsing: CPU = 86.802 ms, elapsed = 142.569 ms.
Time accumulated: CPU = 132.998 ms, elapsed = 142.576 ms.
Peak resident memory used = 45.4 Mbytes.

Time for Elaboration: CPU = 19.232 ms, elapsed = 19.8851 ms.
Time accumulated: CPU = 152.463 ms, elapsed = 162.744 ms.
Peak resident memory used = 50.3 Mbytes.


Time for EDB Visiting: CPU = 884 us, elapsed = 890.97 us.
Time accumulated: CPU = 153.543 ms, elapsed = 163.858 ms.
Peak resident memory used = 51 Mbytes.


Warning from spectre during initial setup.
    WARNING (CMI-2426): X1.M1: `Pdiblc2' = -8.75063e-06 is negative.


Global user options:

Scoped user options:

Circuit inventory:
              nodes 5
            bsim3v3 2     
          capacitor 1     
           resistor 1     
            vsource 3     

Analysis and control statement inventory:
               tran 1     

Output statements:
             .probe 0     
           .measure 0     
               save 1     


Warning from spectre during initial setup.
    WARNING (CMI-2426): X1.M1: `Pdiblc2' = -8.75063e-06 is negative.

Time for parsing: CPU = 6.379 ms, elapsed = 9.45187 ms.
Time accumulated: CPU = 160.109 ms, elapsed = 173.534 ms.
Peak resident memory used = 52.8 Mbytes.

~~~~~~~~~~~~~~~~~~~~~~
Pre-Simulation Summary
~~~~~~~~~~~~~~~~~~~~~~
~~~~~~~~~~~~~~~~~~~~~~

*************************************************************
Transient Analysis `TransientAnalysis': time = (0 s -> 10 ns)
*************************************************************
DC simulation time: CPU = 1.114 ms, elapsed = 557.899 us.

Opening the PSF file inverter.raw/TransientAnalysis.tran.tran ...
Important parameter values:
    start = 0 s
    outputstart = 0 s
    stop = 10 ns
    step = 1 ps
    maxstep = 200 ps
    ic = all
    useprevic = no
    skipdc = no
    reltol = 1e-03
    abstol(V) = 1 uV
    abstol(I) = 1 pA
    temp = 27 C
    tnom = 27 C
    tempeffects = all
    errpreset = moderate
    method = traponly
    lteratio = 3.5
    relref = sigglobal
    cmin = 0 F
    gmin = 1 pS


Output and IC/nodeset summary:
                 save   2       (voltage)

...................9...................8...................7...........

Notice from spectre at time = 3.75703 ns during transient analysis `TransientAnalysis'.
    Found trapezoidal ringing on node vpwl:p.

...................9...................8...................7...............

Notice from spectre at time = 3.95703 ns during transient analysis `TransientAnalysis'.
    Found trapezoidal ringing on node vpwl:p.

...................9...................8...................7...................

Notice from spectre at time = 4 ns during transient analysis `TransientAnalysis'.
    Found trapezoidal ringing on node vpwl:p.

...................9...................8...................7...................6...................5...................4...................3..............

Notice from spectre at time = 7.88427 ns during transient analysis `TransientAnalysis'.
    Found trapezoidal ringing on node vvdd:p.

...................9...................8...................7...................6...................5...................4...................3..................

Notice from spectre at time = 8.08427 ns during transient analysis `TransientAnalysis'.
    Found trapezoidal ringing on node vvdd:p.
        Further occurrences of this notice will be suppressed.

...................9...................8...................7...................6...................5...................4...................3...................2...................1...................0
Number of accepted tran steps =             86

Notice from spectre during transient analysis `TransientAnalysis'.
    Trapezoidal ringing is detected during tran analysis.
        Please use method=trap for better results and performance.


Maximum value achieved for any signal of each quantity: 
V: V(IV_out) = 1.806 V
I: I(vvdd:p) = 226.1 uA
If your circuit contains signals of the same quantity that are vastly different in size (such as high voltage circuitry combined with low voltage control circuitry), you should consider specifying global option `bin_relref=yes'.

~~~~~~~~~~~~~~~~~~~~~~~~~~~~~~~~~
Post-Transient Simulation Summary
~~~~~~~~~~~~~~~~~~~~~~~~~~~~~~~~~
   -   To further speed up simulation, consider
          add ++aps on command line
~~~~~~~~~~~~~~~~~~~~~~~~~~~~~~~~~


During simulation, the CPU load for active processors is :
        Spectre 17 (18.8 %)     37 (81.2 %)     
        Other    0 (5.9 %)       1 (100.0 %)     2 (100.0 %)     3 (11.8 %)
                 4 (100.0 %)     5 (6.2 %)       6 (100.0 %)     8 (100.0 %)
                 9 (100.0 %)    10 (100.0 %)    13 (5.9 %)      15 (6.2 %)
                16 (11.8 %)     19 (5.9 %)      24 (12.5 %)     25 (100.0 %)
                26 (5.9 %)      28 (6.2 %)      29 (12.5 %)     30 (11.8 %)
                32 (100.0 %)    34 (100.0 %)    36 (100.0 %)    38 (100.0 %)
Initial condition solution time: CPU = 1.285 ms, elapsed = 680.923 us.
Intrinsic tran analysis time:    CPU = 29.995 ms, elapsed = 25.0452 ms.
Total time required for tran analysis `TransientAnalysis': CPU = 37.624 ms, elapsed = 31.0969 ms.
Time accumulated: CPU = 213.658 ms, elapsed = 213.828 ms.
Peak resident memory used = 54.9 Mbytes.


Notice from spectre.
    10 notices suppressed.


Aggregate audit (11:55:38 AM, Tue Feb 21, 2023):
Time used: CPU = 221 ms, elapsed = 221 ms, util. = 100%.
Time spent in licensing: elapsed = 24.4 ms, percentage of total = 11%.
Peak memory used = 55.5 Mbytes.
Simulation started at: 11:55:38 AM, Tue Feb 21, 2023, ended at: 11:55:38 AM, Tue Feb 21, 2023, with elapsed time (wall clock): 221 ms.
spectre completes with 0 errors, 2 warnings, and 8 notices.
