
Spectre (R) Circuit Simulator
Version 18.1.0.421.isr9 32bit -- 17 Jul 2019
Copyright (C) 1989-2019 Cadence Design Systems, Inc. All rights reserved worldwide. Cadence and Spectre are registered trademarks of Cadence Design Systems, Inc. All others are the property of their respective holders.

Includes RSA BSAFE(R) Cryptographic or Security Protocol Software from RSA Security, Inc.

User: hbritton   Host: n02-hera.olympus.ece.tamu.edu   HostID: A8C00C02   PID: 18720
Memory  available: 503.1972 GB  physical: 540.7710 GB
Linux   : CentOS Linux release 7.9.2009 (Core)
CPU Type: Intel(R) Xeon(R) CPU E5-2650 v3 @ 2.30GHz
        Socket: Processors [Frequency] (Hyperthreaded Processor)
        0:       0 [1239.3] ( 20 ),  2 [2992.4] ( 22 ),  4 [1276.6] ( 24 )
                 6 [1233.5] ( 26 ),  8 [1200.0] ( 28 ), 10 [1291.6] ( 30 )
                12 [1200.1] ( 32 ), 14 [1200.0] ( 34 ), 16 [1288.0] ( 36 )
                18 [1200.0] ( 38 )
        1:       1 [1222.7] ( 21 ),  3 [1201.2] ( 23 ),  5 [1200.8] ( 25 )
                 7 [1237.0] ( 27 ),  9 [1220.8] ( 29 ), 11 [1200.0] ( 31 )
                13 [1200.1] ( 33 ), 15 [1200.1] ( 35 ), 17 [1200.1] ( 37 )
                19 [1200.3] ( 39 )
        
System load averages (1min, 5min, 15min) : 0.5 %, 0.4 %, 0.8 %
Hyperthreading is enabled
Affinity is set by user to processors:  2 22 

Simulating `inverter.spi' on n02-hera.olympus.ece.tamu.edu at 4:41:37 PM, Sat Feb 18, 2023 (process id: 18720).
Current working directory: /home/ugrads/h/hbritton/ecen454_714/lab3
Environment variable:
    SPECTRE_DEFAULTS=-E
Command line:
    /opt/coe/cadence/SPECTRE181/tools.lnx86/bin/spectre inverter.spi

Loading /opt/coe/cadence/SPECTRE181/tools.lnx86/cmi/lib/5.0/libinfineon_sh.so ...
Loading /opt/coe/cadence/SPECTRE181/tools.lnx86/cmi/lib/5.0/libphilips_o_sh.so ...
Loading /opt/coe/cadence/SPECTRE181/tools.lnx86/cmi/lib/5.0/libphilips_sh.so ...
Loading /opt/coe/cadence/SPECTRE181/tools.lnx86/cmi/lib/5.0/libsparam_sh.so ...
Loading /opt/coe/cadence/SPECTRE181/tools.lnx86/cmi/lib/5.0/libstmodels_sh.so ...
Reading file:  /home/ugrads/h/hbritton/ecen454_714/lab3/inverter.spi
Reading file:  /opt/coe/cadence/SPECTRE181/tools.lnx86/spectre/etc/configs/mapsubckt.cfg
Reading file:  /opt/coe/cadence/SPECTRE181/tools.lnx86/spectre/etc/configs/spectre.cfg
Reading file:  /usr/include/stdc-predef.h

Error found by spectre during circuit read-in.
    ERROR (SFE-868): "inverter.spi" 4: Can not open input file `/home/ugrads/h/hbritton/cadence/cellcharacs/model18.spi'. No such file or directory. Ensure that the file exists and the path to the file is correct. Otherwise, use the -I<path> command-line option to specify the path to the file.
    ERROR (SFE-868): "inverter.spi" 5: Can not open input file `/home/ugrads/h/hbritton/cadence/cellcharacs/cell18.spi'. No such file or directory. Ensure that the file exists and the path to the file is correct. Otherwise, use the -I<path> command-line option to specify the path to the file.

Time for NDB Parsing: CPU = 79.851 ms, elapsed = 143.235 ms.
Time accumulated: CPU = 128.597 ms, elapsed = 143.24 ms.
Peak resident memory used = 45 Mbytes.


Aggregate audit (4:41:37 PM, Sat Feb 18, 2023):
Time used: CPU = 129 ms, elapsed = 144 ms, util. = 89.8%.
Time spent in licensing: elapsed = 27.9 ms, percentage of total = 19.4%.
Peak memory used = 45.2 Mbytes.
Simulation started at: 4:41:37 PM, Sat Feb 18, 2023, ended at: 4:41:37 PM, Sat Feb 18, 2023, with elapsed time (wall clock): 144 ms.
spectre completes with 2 errors, 0 warnings, and 0 notices.
spectre terminated prematurely due to fatal error.
