Spectre (R) Circuit Simulator
Version 18.1.0.421.isr9 64bit -- 17 Jul 2019
Simulating `input.scs' on n01-zeus.olympus.ece.tamu.edu at 1:00:34 PM, Thur Mar 23, 2023 (process id: 10254).
H = mpsImport( "spectre" "ipi" "v0.0" ?session "spectre5_9419_27" )
H->sclSetResultDir( "../psf" )
H->sclRun( "all" )
sclCkt0xaeecc60 = H->sclGetCircuit(  "" )
sclParam0xaeecc60 = H->sclGetParameter( sclCkt0xaeecc60 "delay" )
H->sclSetAttribute( sclParam0xaeecc60 "value" "9.71e-09" )
H->sclSetResultDir( "../psf" )
H->sclRun( "all" )
sclCkt0xaeecc60 = H->sclGetCircuit(  "" )
sclParam0xaeecc61 = H->sclGetParameter( sclCkt0xaeecc60 "delay" )
H->sclSetAttribute( sclParam0xaeecc61 "value" "9.72e-09" )
H->sclSetResultDir( "../psf" )
H->sclRun( "all" )
sclCkt0xaeecc60 = H->sclGetCircuit(  "" )
sclParam0xaeecc62 = H->sclGetParameter( sclCkt0xaeecc60 "delay" )
H->sclSetAttribute( sclParam0xaeecc62 "value" "9.73e-09" )
H->sclSetResultDir( "../psf" )
H->sclRun( "all" )
sclCkt0xaeecc60 = H->sclGetCircuit(  "" )
sclParam0xaeecc63 = H->sclGetParameter( sclCkt0xaeecc60 "delay" )
H->sclSetAttribute( sclParam0xaeecc63 "value" "9.74e-09" )
H->sclSetResultDir( "../psf" )
H->sclRun( "all" )
sclCkt0xaeecc60 = H->sclGetCircuit(  "" )
sclParam0xaeecc64 = H->sclGetParameter( sclCkt0xaeecc60 "delay" )
H->sclSetAttribute( sclParam0xaeecc64 "value" "9.75e-09" )
H->sclSetResultDir( "../psf" )
H->sclRun( "all" )
sclCkt0xaeecc60 = H->sclGetCircuit(  "" )
sclParam0xaeecc65 = H->sclGetParameter( sclCkt0xaeecc60 "delay" )
H->sclSetAttribute( sclParam0xaeecc65 "value" "9.76e-09" )
H->sclSetResultDir( "../psf" )
H->sclRun( "all" )
sclCkt0xaeecc60 = H->sclGetCircuit(  "" )
sclParam0xaeecc66 = H->sclGetParameter( sclCkt0xaeecc60 "delay" )
H->sclSetAttribute( sclParam0xaeecc66 "value" "9.77e-09" )
H->sclSetResultDir( "../psf" )
H->sclRun( "all" )
sclCkt0xaeecc60 = H->sclGetCircuit(  "" )
sclParam0xaeecc67 = H->sclGetParameter( sclCkt0xaeecc60 "delay" )
H->sclSetAttribute( sclParam0xaeecc67 "value" "9.78e-09" )
H->sclSetResultDir( "../psf" )
H->sclRun( "all" )
sclCkt0xaeecc60 = H->sclGetCircuit(  "" )
sclParam0xaeecc68 = H->sclGetParameter( sclCkt0xaeecc60 "delay" )
H->sclSetAttribute( sclParam0xaeecc68 "value" "9.79e-09" )
H->sclSetResultDir( "../psf" )
H->sclRun( "all" )
sclCkt0xaeecc60 = H->sclGetCircuit(  "" )
sclParam0xaeecc69 = H->sclGetParameter( sclCkt0xaeecc60 "delay" )
H->sclSetAttribute( sclParam0xaeecc69 "value" "9.8e-09" )
H->sclSetResultDir( "../psf" )
H->sclRun( "all" )
sclCkt0xaeecc60 = H->sclGetCircuit(  "" )
H->sclQuit(  )
